Version 4
SHEET 1 1208 692
SYMBOL shapes 0 0 R0
SYMATTR InstName X1
TEXT 0 -48 Center 2 ;Test Shapes 