Version 4
SHEET 1 880 680
WIRE -576 -80 -576 -128
WIRE -576 64 -576 0
FLAG -576 64 0
SYMBOL Voltage -576 -96 R0
SYMATTR InstName V1
SYMATTR Value 1
SYMBOL Res -160 -128 R90
WINDOW 0 0 56 VBottom 2
WINDOW 3 32 56 VTop 2
SYMATTR InstName R1
SYMATTR Value 2k
SYMBOL Res -288 32 R180
WINDOW 0 36 88 Left 2
WINDOW 3 36 20 Left 2
SYMATTR InstName R2
SYMATTR Value 1k
SYMBOL Res -272 64 R270
WINDOW 0 32 56 VTop 2
WINDOW 3 0 56 VBottom 2
SYMATTR InstName R3
SYMATTR Value 1k
SYMBOL Res -144 -80 R0
SYMATTR InstName R4
SYMATTR Value 3k
SYMBOL Res 48 -128 M90
WINDOW 0 0 56 VBottom 2
WINDOW 3 32 56 VTop 2
SYMATTR InstName R5
SYMATTR Value 2.5k
SYMBOL Res 176 32 M180
WINDOW 0 36 88 Left 2
WINDOW 3 36 20 Left 2
SYMATTR InstName R6
SYMATTR Value 4k
SYMBOL Res 160 64 M270
WINDOW 0 32 56 VTop 2
WINDOW 3 0 56 VBottom 2
SYMATTR InstName R7
SYMATTR Value 1k
SYMBOL Res 32 -80 M0
SYMATTR InstName R8
SYMATTR Value 1k
