Version 4
SHEET 1 1208 692

* Test shapes
LINE Normal 100 100 200 200 0
LINE Normal 300 300 400 400 1
LINE Normal 500 500 600 600 2

CIRCLE Normal 100 100 200 200 0
CIRCLE Normal 300 300 400 400 1
CIRCLE Normal 500 500 600 600 2

RECTANGLE Normal 100 100 200 200 0
RECTANGLE Normal 300 300 400 400 1
RECTANGLE Normal 500 500 600 600 2

ARC Normal 100 100 200 200 150 150 100 200 0
ARC Normal 300 300 400 400 350 350 300 400 1
ARC Normal 500 500 600 600 550 550 500 600 2 